# =========================
# pkg AUTODIFF parameters :
# =========================
#  inAdExact :: get an exact adjoint (no approximation) (def=.True.)
#
 &AUTODIFF_PARM01
# inAdExact = .FALSE.,
# useSEAICEinAdMode = .FALSE.,
# useKPPinAdMode = .FALSE.,
# useGMRediInAdMode = .FALSE.,
#dont exist but should be added :
# useGGL90inAdMode = .FALSE.,
# useSPLUMEinAdMode = .FALSE.,
 &
