# Packages
 &PACKAGES
 useSHAP_FILT=.TRUE.,
 useZONAL_FILT=.TRUE.,
 useDiagnostics=.TRUE.,
 useAtm_Phys=.TRUE.,
 &
