#
# *******************
# Calendar Parameters
# *******************
 &CAL_NML
 TheCalendar='gregorian',
# TheCalendar='model',
 startDate_1=20020101,
 startDate_2=000000,
 calendarDumps = .TRUE.,
 &
