# Diagnostic Package Choices
#
# 2-D fields:
# =================
# 
# ETAN     Perturbation of Surface (pressure, height) (Pa,m)
# 
# monthly 3-D fields:
# ===================
# 
# SALTanom Salt anomaly (=SALT-35; g/kg)
# THETA    Potential Temperature (degC,K)
# UVELMASS Zonal Mass-Weighted Comp of Velocity (m/s)
# VVELMASS Meridional Mass-Weighted Comp of Velocity (m/s)
# WVELMASS Vertical Mass-Weighted Comp of Velocity (m/s)
#
 &diagnostics_list
   frequency(8) = 25.,
    fields(1:6,8) = 'icefrntW','icefrntT','icefrntS',
                    'icefrntR','icefrntM','icefrntA',
    filename(8) = 'diags/icefrnt_3d_set1', 
   fileFlags(8) = 'D       ',
#
  frequency(1) = 25.0,
   fields(1:9,1) = 'ETAN    ','DETADT2 ','PHIBOT  ',
                   'MXLDEPTH','oceQnet ','oceFWflx',
                   'oceTAUX ','oceTAUY ','ETANSQ  ',
   filename(1) = 'diags/state_2d_set1',
   fileFlags(1) = 'D       ',
###---
  frequency(2) = 25.0,
   fields(1:4,2) = 'THETA   ','SALT    ',
                   'tAddMass','sAddMass',
#                   'DRHODR  ','RHOAnoma',
   filename(2) = 'diags/state_3d_set1',
   fileFlags(2) = 'D       ',
##---
  frequency(3) = 25.0,
   fields(1:3,3) = 'UVELMASS','VVELMASS','WVELMASS',
   filename(3) = 'diags/trsp_3d_set1',
   fileFlags(3) = 'D       ',
###---
##set below only works if we turn on pkg/exf
#  frequency(4) = 25.0,
#   fields(1:18,4) ='EXFpreci','EXFevap ','EXFroff ','EXFempmr',
#                   'EXFswdn ','EXFlwdn ','EXFswnet','EXFlwnet','EXFqnet ',
#                   'EXFatemp','EXFaqh  ','EXFtaux ','EXFtauy ',
#                   'EXFuwind','EXFvwind','EXFpress','EXFhs   ','EXFhl   ',
#   filename(4) = 'diags/exf_zflux_set1',
##                 'EXFroft ',
###---
  frequency(5) = -25.0,
   fields(1:2,5) = 'ETAN    ',
                   'PHIBOT  ',
   filename(5) = 'diags/budg2d_snap_set1',
   timePhase(5)= 0.,
   fileFlags(5) = 'D       ',
#'SIheff  ','SIhsnow ','SIarea  ','sIceLoad',
#####---
  frequency(9) = -25.0,
   fields(1:4,9) = 'THETA   ','SALT    ',
                   'tAddMass','sAddMass',
   filename(9) = 'diags/budg3d_snap_set3',
   timePhase(9)= 0.,
   fileFlags(9) = 'D       ',
#####---
  frequency(7) = 25.0,
   fields(1:4,7) = 'oceFWflx','TFLUX   ',
                   'SFLUX   ','oceQsw  ',
   filename(7) = 'diags/budg2d_zflux_set1',
   fileFlags(7) = 'D       ',
#                  'SPforcT1','SPforcS1',
#                  'SIatmFW ','SItflux ','oceSPflx',
#####---
  frequency(14) = 25.0,
   fields(1:10,14) ='UVELMASS','VVELMASS',
                    'ADVx_TH ','ADVy_TH ','DFxE_TH ','DFyE_TH ',
                    'ADVx_SLT','ADVy_SLT','DFxE_SLT','DFyE_SLT',
#                    'AB_gT   ','AB_gS   ',
   filename(14) = 'diags/budg3d_hflux_set2',
   fileFlags(14) = 'D       ',
#the following are not transports but tendencies
#                 'oceSPtnd','oceEPtnd',
#####---
  frequency(17) = 25.0,
   fields(1:5,17) ='addMass ','IPmasspl','IPmassbg',
                   'IP_gTbg ','IP_gSbg ',
#'IP_gTplm','IP_gSplm',
   filename(17) = 'diags/budg3d_hflux_set3',
   fileFlags(17) = 'D       ',
#####---
  frequency(18) = 25.0,
   fields(1:2,18) ='gTaddMas','gSaddMas',
   filename(18) = 'diags/budg3d_tend',
   fileFlags(18) = 'D       ',
#####---
## this one is important because it activates the vertical advection diags
  frequency(15) = 25.0,
   fields(1:4,15) ='WTHMASS ','WSLTMASS',
                   'oceSflux','oceQnet ',
   filename(15) = 'diags/budg2d_zflux_set2',
   fileFlags(15) = 'D       ',
#                   'SIatmQnt','SIaaflux','SIsnPrcp','SIacSubl',
#'SRELAX  ','TRELAX  ',
#'SIempmr ', SIempmr is identical to minus oceFWflx
#####---
  frequency(16) = 25.0,
   fields(1:7,16) ='WVELMASS',
                   'ADVr_TH ','DFrE_TH ',
                   'ADVr_SLT','DFrE_SLT',
                   'WTHMASS ','WSLTMASS',
#'DFrI_TH ','DFrI_SLT',
   filename(16) = 'diags/budg3d_zflux_set2',
   fileFlags(16) = 'D       ',
 &
# Parameter for Diagnostics of per level statistics:
#-----------------
# for each output-stream:
#  stat_fname(n) : prefix of the output file name (only 8.c long) for
#outp.stream n
#  stat_freq(n):< 0 : write snap-shot output every |stat_freq| seconds
#               > 0 : write time-average output every stat_freq seconds
#  stat_phase(n)    : write at time = stat_phase + multiple of |stat_freq|
#  stat_region(:,n) : list of "regions" (default: 1 region only=global)
#  stat_fields(:,n) : list of diagnostics fields (8.c) (see
#"available_diagnostics.log"
#                 file for the list of all available diag. in this particular
#config)
#-----------------
 &DIAG_STATIS_PARMS
#- an example just to check the agreement with MONITOR output:
#stat_fields(1,1)= 'ETAN    ','UVEL    ','VVEL    ','WVEL    ', 'THETA   ',
#   stat_fname(1)= 'dynStDiag',
#    stat_freq(1)= -864000.,
#   stat_phase(1)= 0.,
 &
