# Packages
 &PACKAGES
 useOBCS=.FALSE.,
 useDiagnostics=.TRUE.,
 useICEPLUME=.TRUE.,
 useEXF=.TRUE.,
 useCAL=.TRUE.,
 &
