#
# *********************
# External Forcing Data
# *********************
 &EXF_NML_01
#
 useExfCheckRange  = .TRUE.,
#366*24*3600=31622400
 repeatPeriod      = 31622400.0,
#this is tricky here, as iceplume prec tied to exf param
 exf_iprec         = 64,
#
 &

# *********************
 &EXF_NML_02
##
# hfluxstartdate1   = 19781216,
# hfluxstartdate2   = 180000,
# hfluxperiod       = 2635200.0,
##
# sfluxstartdate1   = 19781216,
# sfluxstartdate2   = 180000,
# sfluxperiod       = 2635200.0,
##
# ustressstartdate1 = 19781216,
# ustressstartdate2 = 180000,
# ustressperiod     = 2635200.0,
##
# vstressstartdate1 = 19781216,
# vstressstartdate2 = 180000,
# vstressperiod     = 2635200.0,
##
# atempstartdate1   = 19781216,
# atempstartdate2   = 180000,
# atempperiod       = 2635200.0,
## atempperiod       = 86400.0,
##
# aqhstartdate1     = 19781216,
# aqhstartdate2     = 180000,
# aqhperiod         = 2635200.0,
##
# evapstartdate1    = 19781216,
# evapstartdate2    = 180000,
# evapperiod        = 2635200.0,
##
# precipstartdate1  = 19781216,
# precipstartdate2  = 180000,
# precipperiod      = 2635200.0,
##
# uwindstartdate1   = 19781216,
# uwindstartdate2   = 180000,
# uwindperiod       = 2635200.0,
##
# vwindstartdate1   = 19781216,
# vwindstartdate2   = 180000,
# vwindperiod       = 2635200.0,
##
# swfluxstartdate1  = 19781216,
# swfluxstartdate2  = 180000,
# swfluxperiod      = 2635200.0,
##
# lwfluxstartdate1  = 19781216,
# lwfluxstartdate2  = 180000,
# lwfluxperiod      = 2635200.0,
##
# swdownstartdate1  = 19781216,
# swdownstartdate2  = 180000,
# swdownperiod      = 2635200.0,
##
# lwdownstartdate1  = 19781216,
# lwdownstartdate2  = 180000,
# lwdownperiod      = 2635200.0,
##
## climsststartdate1  = 19781216,
## climsststartdate2  = 180000,
## climsstperiod      = 2635200.0,
## climsstTauRelax    = 0.0,
###
## climsssstartdate1  = 19781216,
## climsssstartdate2  = 180000,
## climsssperiod      = 2635200.0,
## climsssTauRelax    = 4142330.0,
##
# hfluxfile         = ' ',
# sfluxfile         = ' ',
# ustressfile       = ' ',
# vstressfile       = ' ',
# atempfile         = ' ',
# aqhfile           = ' ',
# uwindfile         = ' ',
# vwindfile         = ' ',
## evapfile          = ' ',
# precipfile        = ' ',
# lwfluxfile        = ' ',
# swfluxfile        = ' ',
# lwdownfile        = ' ',
# swdownfile        = ' ',
# runoffFile        = ' '
# climsstfile       = ' ',
## climsssfile       = ' ',
##
 &

# *********************
 &EXF_NML_03
 &

# *********************
 &EXF_NML_04
 &
