# Open-boundaries
 &OBCS_PARM01
 OB_Jnorth=3*400,
 useOBCSprescribe=.true.,
 useOBCSsponge=.true.,
# OBWuFile='uvel.obw',
 OBNvFile='vvel.obw',
 OBNtFile='theta.obw',
 OBNsFile='salt.obw',
 useOrlanskiNorth=.FALSE.,
 &

# Orlanski parameters
 &OBCS_PARM02
#Cmax=0.45,
#cVelTimeScale=1000.,
 &

# Sponge layer parameters
 &OBCS_PARM03
 spongeThickness = 20,
 Vrelaxobcsbound = 864000.,
 Urelaxobcsbound = 864000.,
 &
