# *******************
# Calendar Parameters
# *******************
 &CAL_NML
 TheCalendar='model',
#- with baseTime = 1.yr:
 startDate_1= 20000101,
#- with baseTime = 0.:
#startDate_1= 20010101,
 startDate_2=   000000,
 &
