 &OPTIM
 optimcycle=0,
 numiter=1,
 nfunc=2,
 fmin=1000,
 iprint=10,
 nupdate=4,
 /
