# Packages
 &PACKAGES
  useEXF    = .TRUE.,
  useCAL    = .TRUE.,
# useCTRL   = .TRUE.,
  useDiagnostics = .TRUE.,
 &
