# Packages
 &PACKAGES
 useGMRedi=.TRUE.,
 usediagnostics=.TRUE.,
 usePTRACERS=.TRUE.,
 useGCHEM=.TRUE.,
 &
