# Packages
 &PACKAGES
 useEXF          =.TRUE.,
 useGMRedi       =.TRUE.,
 useGGL90        =.TRUE.,
 useSeaice       =.TRUE.,
 useSALT_PlUME   =.TRUE.,
#useDiagnostics  =.TRUE.,
 useECCO         =.TRUE.,
 useProfiles     =.TRUE.,
 useCTRL         =.TRUE.,
 useSMOOTH       =.TRUE.,
 useGrdchk       =.TRUE.,
#useKPP          =.TRUE.,
#useDOWN_SLOPE   =.TRUE.,
#useLayers       =.TRUE.,
#useRBCS         =.TRUE.,
 useSBO          =.TRUE.,
#usePtracers     =.TRUE.,
#useBBL          =.TRUE.,
 /
