# Packages
 &PACKAGES
  useCheapAML=.TRUE.,
# useSEAICE = .TRUE.,
  useThSIce = .TRUE.,
  useDiagnostics=.TRUE.,
 &
